03_OpenDSS_Circuits/Flay_Circuit_Opendss/Test_Case/WireData.DSS
New WireData.1/0-ACSR-B-6X1 Rac= 0.551777  GMRac=0.387096 diam=1.010920 normamps=260.000000 emergamps=260.000000 Runits=km  GMRunits=cm  radunits=cm 
New WireData.2-ACSR-B-6X1 Rac= 0.850036  GMRac=0.313944 diam=0.802640 normamps=198.000000 emergamps=198.000000 Runits=km  GMRunits=cm  radunits=cm 
New WireData.336-AAC-B-19 Rac= 0.172741  GMRac=0.640080 diam=1.691640 normamps=560.000000 emergamps=560.000000 Runits=km  GMRunits=cm  radunits=cm 
New WireData.336-ACSR-B-18X1 Rac= 0.171498  GMRac=0.676656 diam=1.737360 normamps=564.000000 emergamps=564.000000 Runits=km  GMRunits=cm  radunits=cm 
New WireData.4-ACSR-B-6X1 Rac= 1.351482  GMRac=0.252984 diam=0.635000 normamps=149.000000 emergamps=149.000000 Runits=km  GMRunits=cm  radunits=cm 
